Version 4
SHEET 1 880 680
WIRE 608 -16 208 -16
WIRE 448 16 320 16
WIRE 448 48 448 16
WIRE 320 144 320 16
WIRE 448 144 448 128
WIRE 208 160 208 -16
WIRE 288 160 208 160
WIRE 608 176 608 -16
WIRE 608 176 352 176
WIRE 112 192 -32 192
WIRE 288 192 192 192
WIRE -32 256 -32 192
WIRE 320 256 320 208
WIRE 320 352 320 336
WIRE -32 384 -32 336
FLAG -32 384 0
FLAG 608 176 Vo
IOPIN 608 176 Out
FLAG -32 192 Vs
FLAG 448 144 0
FLAG 320 352 0
SYMBOL OpAmps\\UniversalOpamp2 320 176 R0
SYMATTR InstName U1
SYMBOL res 208 176 R90
WINDOW 0 0 56 VBottom 2
WINDOW 3 32 56 VTop 2
SYMATTR InstName Rs
SYMATTR Value 470
SYMBOL voltage -32 240 R0
WINDOW 3 24 152 Left 2
WINDOW 123 24 124 Left 2
WINDOW 39 0 0 Left 0
SYMATTR Value SINE(0 100m 1K)
SYMATTR InstName V3
SYMBOL voltage 448 32 R0
WINDOW 123 0 0 Left 0
WINDOW 39 0 0 Left 0
SYMATTR InstName V1
SYMATTR Value 15
SYMBOL voltage 320 240 R0
WINDOW 123 0 0 Left 0
WINDOW 39 0 0 Left 0
SYMATTR InstName V2
SYMATTR Value -15
TEXT -64 416 Left 2 !.tran 10m
