Version 4
SHEET 1 1304 940
WIRE 816 528 784 528
WIRE 1184 528 896 528
WIRE 976 560 896 560
WIRE 976 592 976 560
WIRE 896 688 896 560
WIRE 976 688 976 672
WIRE 624 704 480 704
WIRE 784 704 784 528
WIRE 784 704 704 704
WIRE 864 704 784 704
WIRE 1184 720 1184 528
WIRE 1184 720 928 720
WIRE 1216 720 1184 720
WIRE 864 752 768 752
WIRE 480 768 480 704
WIRE 896 800 896 752
WIRE 768 832 768 752
WIRE 480 896 480 848
WIRE 896 912 896 880
FLAG 768 832 0
FLAG 480 896 0
FLAG 480 704 Vs
FLAG 976 688 0
FLAG 896 912 0
FLAG 1216 720 Vo
IOPIN 1216 720 Out
SYMBOL OpAmps\\UniversalOpamp2 896 720 R0
SYMATTR InstName U1
SYMBOL res 912 512 R90
WINDOW 0 0 56 VBottom 2
WINDOW 3 32 56 VTop 2
SYMATTR InstName R1
SYMATTR Value 16K
SYMBOL res 720 688 R90
WINDOW 0 0 56 VBottom 2
WINDOW 3 32 56 VTop 2
SYMATTR InstName R2
SYMATTR Value 1K
SYMBOL voltage 480 752 R0
WINDOW 123 24 124 Left 2
WINDOW 39 0 0 Left 0
SYMATTR Value2 AC 1
SYMATTR InstName V3
SYMATTR Value ""
SYMBOL voltage 976 576 R0
WINDOW 123 0 0 Left 0
WINDOW 39 0 0 Left 0
SYMATTR InstName V1
SYMATTR Value 15
SYMBOL voltage 896 784 R0
WINDOW 123 0 0 Left 0
WINDOW 39 0 0 Left 0
SYMATTR InstName V2
SYMATTR Value -15
TEXT 448 920 Left 2 !.ac dec 100 1 10G
